Circuit: * C:\Users\User\Desktop\Practica9\LTSpice\Draft1.asc


Date: Sun Dec 01 16:33:10 2019
Total elapsed time: 0.173 seconds.

tnom = 27
temp = 27
method = trap
totiter = 3011
traniter = 0
tranpoints = 0
accept = 0
rejected = 0
matrix size = 6
fillins = 0
solver = Normal
Matrix Compiler1: 146 bytes object code size  0.1/0.1/[0.1]
Matrix Compiler2: 380 bytes object code size  0.1/0.1/[0.1]

